/*--------------------------------*- C++ -*----------------------------------*\
  =========                 |
  \\      /  F ield         | OpenFOAM: The Open Source CFD Toolbox
   \\    /   O peration     | Website:  https://openfoam.org
    \\  /    A nd           | Version:  9
     \\/     M anipulation  |
\*---------------------------------------------------------------------------*/
FoamFile
{
    format      ascii;
    class       dictionary;
    object      blockMeshDict;
}
// * * * * * * * * * * * * * * * * * * * * * * * * * * * * * * * * * * * * * //

convertToMeters 0.001;	// Dimensions in mm

// Define dimensions of box [mm]
len	200;
height	100;
thick	10;

vertices
(
	(0	0	0)
	($len	0	0)
	($len	$height	0)
	(0	$height	0)
	(0	0	$thick)
	($len	0	$thick)
	($len	$height	$thick)
	(0	$height	$thick)
);

blocks
(
	hex (0 1 2 3 4 5 6 7) (20 20 1) simpleGrading (1 1 1)
);

edges
(
);

boundary
(
	top
	{
		type wall;
		faces
		(
			(3 7 6 2)
		);
	}

	bottom
	{
		type wall;
		faces
		(
			(1 5 4 0)
		);
	}

	inlet
	{
		type patch;
		faces
		(
			(0 4 7 3)
		);
	}

	outlet
	{
		type patch;
		faces
		(
			(2 6 5 1)
		);
	}

	frontAndBack
	{
		type empty;
		faces
		(
			(0 3 2 1)
			(4 5 6 7)
		);
	}
);

mergePatchPairs
(
);
